6
UNITS=BOHR NDIM=3
C   -1.25946548E+00    0.00000000E+00    0.00000000E+00
C    1.25946548E+00    0.00000000E+00    0.00000000E+00
H   -2.32162667E+00    1.74006152E+00    0.00000000E+00
H   -2.32162667E+00   -1.74006152E+00    0.00000000E+00
H    2.32162667E+00    1.74006152E+00    0.00000000E+00
H    2.32162667E+00   -1.74006152E+00    0.00000000E+00
